/*--------------------------------*- C++ -*----------------------------------*\
| =========                 |                                                 |
| \\      /  F ield         | OpenFOAM: The Open Source CFD Toolbox           |
|  \\    /   O peration     | Version:  2.3.1                                 |
|   \\  /    A nd           | Web:      www.OpenFOAM.org                      |
|    \\/     M anipulation  |                                                 |
\*---------------------------------------------------------------------------*/
FoamFile
{
    version     2.0;
    format      ascii;
    class       dictionary;
    location    "system";
    object      fvSolution;
}
// * * * * * * * * * * * * * * * * * * * * * * * * * * * * * * * * * * * * * //

solvers
{
    A
    {
        solver          PBiCG; 
        preconditioner  DILU;
        tolerance       1e-12;
        relTol          0.01;
    }

    AFinal
    {
        $A;

        tolerance       1e-12;
        relTol          0;
    }

    B
    {
        solver          PCG;
        preconditioner  FDIC;
        tolerance       1e-12;
        relTol          0.01;
    }

    BFinal
    {
        $B;

        tolerance       1e-12;
        relTol          0;
    }
}

PIMPLE
{
    nOuterCorrectors 50;

    residualControl
    {
        A
        {
            relTol      0;
            tolerance   1e-6;
        }
        B
        {
            relTol      0;
            tolerance   1e-6;
        }
    }
}


// ************************************************************************* //
