/*--------------------------------*- C++ -*----------------------------------*\
| =========                 |                                                 |
| \\      /  F ield         | OpenFOAM: The Open Source CFD Toolbox           |
|  \\    /   O peration     | Version:  2.3.1                                 |
|   \\  /    A nd           | Web:      www.OpenFOAM.org                      |
|    \\/     M anipulation  |                                                 |
\*---------------------------------------------------------------------------*/
FoamFile
{
    version     2.0;
    format      ascii;
    class       dictionary;
    location    "system";
    object      setFieldsDict;
}
// * * * * * * * * * * * * * * * * * * * * * * * * * * * * * * * * * * * * * //

defaultFieldValues
(
    volScalarFieldValue A 1.0
    volScalarFieldValue B 0.05
);

regions
(
    cylinderToCell
    {
        
        p1 (0.5 0.5 0);
        p2 (0.5 0.5 1);

        radius 0.015;

        fieldValues
        (
            volScalarFieldValue A 1
            volScalarFieldValue B 2
        );


    }
);


// ************************************************************************* //
