/*--------------------------------*- C++ -*----------------------------------*\
| =========                 |                                                 |
| \\      /  F ield         | OpenFOAM: The Open Source CFD Toolbox           |
|  \\    /   O peration     | Version:  2.3.1                                 |
|   \\  /    A nd           | Web:      www.OpenFOAM.org                      |
|    \\/     M anipulation  |                                                 |
\*---------------------------------------------------------------------------*/
FoamFile
{
    version     2.0;
    format      ascii;
    class       polyBoundaryMesh;
    location    "constant/polyMesh";
    object      boundary;
}
// * * * * * * * * * * * * * * * * * * * * * * * * * * * * * * * * * * * * * //

5
(
    top
    {
        type            cyclic;
        inGroups        1(cyclic);
        nFaces          800;
        startFace       1278400;
        matchTolerance  0.0001;
        transform       unknown;
        neighbourPatch  bottom;
    }
    bottom
    {
        type            cyclic;
        inGroups        1(cyclic);
        nFaces          800;
        startFace       1279200;
        matchTolerance  0.0001;
        transform       unknown;
        neighbourPatch  top;
    }
    left
    {
        type            cyclic;
        inGroups        1(cyclic);
        nFaces          800;
        startFace       1280000;
        matchTolerance  0.0001;
        transform       unknown;
        neighbourPatch  right;
    }
    right
    {
        type            cyclic;
        inGroups        1(cyclic);
        nFaces          800;
        startFace       1280800;
        matchTolerance  0.0001;
        transform       unknown;
        neighbourPatch  left;
    }
    frontAndBack
    {
        type            empty;
        inGroups        1(empty);
        nFaces          1280000;
        startFace       1281600;
    }
)

// ************************************************************************* //
